gridlabd-4/PG&E/MC0001.glm
// PG&E MC0001 Taxonomy Feeder Model

module powerflow
{
	solver_method NR;
	default_maximum_voltage_error 1e-4;
}

//*********************************************
// Conductor Objects
//*********************************************

// OHCond_1/0_AAC_I
object overhead_line_conductor {
	name OHCond_1/0_AAC_I;
	resistance 0.8820750323;
	geometric_mean_radius 0.0110971584;
	diameter 0.367999264;
}

// OHCond_2_CU_I
object overhead_line_conductor {
	name OHCond_2_CU_I;
	resistance 0.8920559109;
	geometric_mean_radius 0.0882773952;
	diameter 0.291999416;
}

// OHCond_3/0_CU_I
object overhead_line_conductor {
	name OHCond_3/0_CU_I;
	resistance 0.3535696472;
	geometric_mean_radius 0.0140363992;
	diameter 0.463999072;
}

// OHCond_336_AAC_I
object overhead_line_conductor {
	name OHCond_336_AAC_I;
	resistance 0.2778923147;
	geometric_mean_radius 0.020994624;
	diameter 0.66499867;
}

// OHCond_2/0_CU_I
object overhead_line_conductor {
	name OHCond_2/0_CU_I;
	resistance 0.4453383704;
	geometric_mean_radius 0.012506804;
	diameter 0.413999172;
}

// OHCond_715_AAC_I
object overhead_line_conductor {
	name OHCond_715_AAC_I;
	resistance 0.1324968876;
	geometric_mean_radius 0.0311920128;
	diameter 0.972998054;
}

// OHCond_3/0_AAC_I
object overhead_line_conductor {
	name OHCond_3/0_AAC_I;
	resistance 0.5542847618;
	geometric_mean_radius 0.0140363992;
	diameter 0.463999072;
}

// OHCond_1/0_ACSR_I
object overhead_line_conductor {
	name OHCond_1/0_ACSR_I;
	resistance 0.8584762571;
	geometric_mean_radius 0.053506312;
	diameter 0.397999204;
}

// OHCond_4/0_ACSR_I
object overhead_line_conductor {
	name OHCond_4/0_ACSR_I;
	resistance 0.4287883292;
	geometric_mean_radius 0.0976549808;
	diameter 0.562998874;
}

// OHCond_4_ACSR_I
object overhead_line_conductor {
	name OHCond_4_ACSR_I;
	resistance 2.1715395317;
	geometric_mean_radius 0.0524265688;
	diameter 0.2499995;
}

// OHCond_6_CU_I
object overhead_line_conductor {
	name OHCond_6_CU_I;
	resistance 2.2113584416;
	geometric_mean_radius 0.00525866;
	diameter 0.161999676;
}

// OHCond_DEFAULT
object overhead_line_conductor {
	name OHCond_DEFAULT;
	resistance 0.27792611;
	geometric_mean_radius 0.01667552;
	diameter 0.52799107;
}

// OHCond_1/0_CU_I
object overhead_line_conductor {
	name OHCond_1/0_CU_I;
	resistance 0.5615250025;
	geometric_mean_radius 0.0111371416;
	diameter 0.367999264;
}

// OHCond_4/0_AAC_I
object overhead_line_conductor {
	name OHCond_4/0_AAC_I;
	resistance 0.4406874934;
	geometric_mean_radius 0.015765976;
	diameter 0.521998956;
}

// OHCond_4_CU_I
object overhead_line_conductor {
	name OHCond_4_CU_I;
	resistance 1.4181103321;
	geometric_mean_radius 0.006998208;
	diameter 0.231999536;
}

// OHCond_397_AAC_I
object overhead_line_conductor {
	name OHCond_397_AAC_I;
	resistance 0.2354936969;
	geometric_mean_radius 0.0227941632;
	diameter 0.722998554;
}

// OHCond_1_CU_I
object overhead_line_conductor {
	name OHCond_1_CU_I;
	resistance 0.7076011635;
	geometric_mean_radius 0.0099074696;
	diameter 0.327999344;
}

// OHCond_2_ACSR_I
object overhead_line_conductor {
	name OHCond_2_ACSR_I;
	resistance 1.3505631832;
	geometric_mean_radius 0.060464504;
	diameter 0.32499935;
}

// UGCable_DEFAULT
object underground_line_conductor {
	name UGCable_DEFAULT;
	outer_diameter 0.6692917;
	conductor_gmr 0.01667552;
	conductor_diameter 0.52799107;
	conductor_resistance 0.27792611;
	neutral_gmr 0.01667552;
	neutral_resistance 0.27792611;
	neutral_diameter 0.52799107;
	neutral_strands 2;
}

// UGCable_700_AL_XLP-CONC-PVC_22KV_3P
object underground_line_conductor {
	name UGCable_700_AL_XLP-CONC-PVC_22KV_3P;
	outer_diameter 0.6692917;
	conductor_gmr 0.01667552;
	conductor_diameter 0.52799107;
	conductor_resistance 0.27792611;
	neutral_gmr 0.01667552;
	neutral_resistance 0.27792611;
	neutral_diameter 0.52799107;
	neutral_strands 2;
}

// UGCable_2_AL_PEC_22KV_2P
object underground_line_conductor {
	name UGCable_2_AL_PEC_22KV_2P;
	outer_diameter 0.669290518897;
	conductor_gmr 0.01667552;
	conductor_diameter 0.52799107;
	conductor_resistance 0.27792611;
	neutral_gmr 0.01667552;
	neutral_resistance 0.27792611;
	neutral_diameter 0.52799107;
	neutral_strands 2;
}

// UGCable_1000_AL_XLP-PVC_22KV_3P
object underground_line_conductor {
	name UGCable_1000_AL_XLP-PVC_22KV_3P;
	outer_diameter 0.6692917;
	conductor_gmr 0.01667552;
	conductor_diameter 0.52799107;
	conductor_resistance 0.27792611;
	neutral_gmr 0.01667552;
	neutral_resistance 0.27792611;
	neutral_diameter 0.52799107;
	neutral_strands 2;
}

// UGCable_2_AL_XLP-CONC-ENCAP-PE_22KV_3P
object underground_line_conductor {
	name UGCable_2_AL_XLP-CONC-ENCAP-PE_22KV_3P;
	outer_diameter 0.6692917;
	conductor_gmr 0.01667552;
	conductor_diameter 0.52799107;
	conductor_resistance 0.27792611;
	neutral_gmr 0.01667552;
	neutral_resistance 0.27792611;
	neutral_diameter 0.52799107;
	neutral_strands 2;
}

// UGCable_1/0_AL_EPR-CONC-ENCAP-PE_2P
object underground_line_conductor {
	name UGCable_1/0_AL_EPR-CONC-ENCAP-PE_2P;
	outer_diameter 0.669290518897;
	conductor_gmr 0.01667552;
	conductor_diameter 0.52799107;
	conductor_resistance 0.27792611;
	neutral_gmr 0.01667552;
	neutral_resistance 0.27792611;
	neutral_diameter 0.52799107;
	neutral_strands 2;
}

// UGCable_2_AL_XLP-CONC-CIC_22KV_2P
object underground_line_conductor {
	name UGCable_2_AL_XLP-CONC-CIC_22KV_2P;
	outer_diameter 0.669290518897;
	conductor_gmr 0.01667552;
	conductor_diameter 0.52799107;
	conductor_resistance 0.27792611;
	neutral_gmr 0.01667552;
	neutral_resistance 0.27792611;
	neutral_diameter 0.52799107;
	neutral_strands 2;
}

// UGCable_1/0_AL_EPR-CONC-ENCAP-PE_3P
object underground_line_conductor {
	name UGCable_1/0_AL_EPR-CONC-ENCAP-PE_3P;
	outer_diameter 0.6692917;
	conductor_gmr 0.01667552;
	conductor_diameter 0.52799107;
	conductor_resistance 0.27792611;
	neutral_gmr 0.01667552;
	neutral_resistance 0.27792611;
	neutral_diameter 0.52799107;
	neutral_strands 2;
}

// UGCable_2_AL_XLP-CONC-PVC_22KV_3P
object underground_line_conductor {
	name UGCable_2_AL_XLP-CONC-PVC_22KV_3P;
	outer_diameter 0.6692917;
	conductor_gmr 0.01667552;
	conductor_diameter 0.52799107;
	conductor_resistance 0.27792611;
	neutral_gmr 0.01667552;
	neutral_resistance 0.27792611;
	neutral_diameter 0.52799107;
	neutral_strands 2;
}

// UGCable_1/0_AL_XLP-CON-ENCP-PE_22KV_2P
object underground_line_conductor {
	name UGCable_1/0_AL_XLP-CON-ENCP-PE_22KV_2P;
	outer_diameter 0.669290518897;
	conductor_gmr 0.01667552;
	conductor_diameter 0.52799107;
	conductor_resistance 0.27792611;
	neutral_gmr 0.01667552;
	neutral_resistance 0.27792611;
	neutral_diameter 0.52799107;
	neutral_strands 2;
}

// UGCable_1100_AL_EPR-CONC-ENCAP-PE_3P
object underground_line_conductor {
	name UGCable_1100_AL_EPR-CONC-ENCAP-PE_3P;
	outer_diameter 0.6692917;
	conductor_gmr 0.01667552;
	conductor_diameter 0.52799107;
	conductor_resistance 0.27792611;
	neutral_gmr 0.01667552;
	neutral_resistance 0.27792611;
	neutral_diameter 0.52799107;
	neutral_strands 2;
}

// UGCable_1/0_AL_XLP-CONC-PVC_22KV_3P
object underground_line_conductor {
	name UGCable_1/0_AL_XLP-CONC-PVC_22KV_3P;
	outer_diameter 0.6692917;
	conductor_gmr 0.01667552;
	conductor_diameter 0.52799107;
	conductor_resistance 0.27792611;
	neutral_gmr 0.01667552;
	neutral_resistance 0.27792611;
	neutral_diameter 0.52799107;
	neutral_strands 2;
}

// UGCable_600_AL_EPR-CONC-ENCAP-PE_3P
object underground_line_conductor {
	name UGCable_600_AL_EPR-CONC-ENCAP-PE_3P;
	outer_diameter 0.6692917;
	conductor_gmr 0.01667552;
	conductor_diameter 0.52799107;
	conductor_resistance 0.27792611;
	neutral_gmr 0.01667552;
	neutral_resistance 0.27792611;
	neutral_diameter 0.52799107;
	neutral_strands 2;
}

// UGCable_2_AL_XLP-CONC-PVC_22KV_2P
object underground_line_conductor {
	name UGCable_2_AL_XLP-CONC-PVC_22KV_2P;
	outer_diameter 0.669290518897;
	conductor_gmr 0.01667552;
	conductor_diameter 0.52799107;
	conductor_resistance 0.27792611;
	neutral_gmr 0.01667552;
	neutral_resistance 0.27792611;
	neutral_diameter 0.52799107;
	neutral_strands 2;
}

//*********************************************
// Line spacing objects
//*********************************************
// OHSpacing_HORIZONTAL_2P_88
object line_spacing {
	name OHSpacing_HORIZONTAL_2P_88;
	distance_AB 7.3332408792;
	distance_BC 7.3332408792;
	distance_AC 7.3332408792;
	distance_AN 9.9998784;
	distance_BN 9.9998784;
	distance_CN 9.9998784;
}

// OHSpacing_TRIANGULAR_3P_52
object line_spacing {
	name OHSpacing_TRIANGULAR_3P_52;
	distance_AB 4.3332773592;
	distance_BC 4.3332773592;
	distance_AC 4.3332773592;
	distance_AN 6.6665888808;
	distance_BN 6.6665888808;
	distance_CN 6.6665888808;
}

// UGSpacing_2_AL_XLP-CONC-ENCAP-PE_22KV_3P
object line_spacing {
	name UGSpacing_2_AL_XLP-CONC-ENCAP-PE_22KV_3P;
	distance_AB 0.147636;
	distance_BC 0.147636;
	distance_AC 0.295272;
}

// UGSpacing_1000_AL_XLP-PVC_22KV_3P
object line_spacing {
	name UGSpacing_1000_AL_XLP-PVC_22KV_3P;
	distance_AB 0.147636;
	distance_BC 0.147636;
	distance_AC 0.295272;
}

// UGSpacing_2_AL_XLP-CONC-PVC_22KV_2P
object line_spacing {
	name UGSpacing_2_AL_XLP-CONC-PVC_22KV_2P;
	distance_AB 0.147636;
	distance_BC 0.0;
	distance_AC 0.0;
}

// OHSpacing_HORIZONTAL_1P_52
object line_spacing {
	name OHSpacing_HORIZONTAL_1P_52;
	distance_AB 4.3332773592;
	distance_BC 4.3332773592;
	distance_AC 4.3332773592;
	distance_AN 6.6665888808;
	distance_BN 6.6665888808;
	distance_CN 6.6665888808;
}

// UGSpacing_1/0_AL_EPR-CONC-ENCAP-PE_3P
object line_spacing {
	name UGSpacing_1/0_AL_EPR-CONC-ENCAP-PE_3P;
	distance_AB 0.147636;
	distance_BC 0.147636;
	distance_AC 0.295272;
}

// OHSpacing_HORIZONTAL_2P_52
object line_spacing {
	name OHSpacing_HORIZONTAL_2P_52;
	distance_AB 4.3332773592;
	distance_BC 4.3332773592;
	distance_AC 4.3332773592;
	distance_AN 6.6665888808;
	distance_BN 6.6665888808;
	distance_CN 6.6665888808;
}

// OHSpacing_HORIZONTAL_3P_88
object line_spacing {
	name OHSpacing_HORIZONTAL_3P_88;
	distance_AB 7.3332408792;
	distance_BC 7.3332408792;
	distance_AC 7.3332408792;
	distance_AN 9.9998784;
	distance_BN 9.9998784;
	distance_CN 9.9998784;
}

// OHSpacing_HORIZONTAL_3P_45
object line_spacing {
	name OHSpacing_HORIZONTAL_3P_45;
	distance_AB 3.7499544;
	distance_BC 3.7499544;
	distance_AC 3.7499544;
	distance_AN 3.7499544;
	distance_BN 3.7499544;
	distance_CN 3.7499544;
}

// OHSpacing_TRIANGULAR_3P_30
object line_spacing {
	name OHSpacing_TRIANGULAR_3P_30;
	distance_AB 2.4999696;
	distance_BC 2.4999696;
	distance_AC 2.4999696;
	distance_AN 4.9999392;
	distance_BN 4.9999392;
	distance_CN 4.9999392;
}

// UGSpacing_DEFAULT
object line_spacing {
	name UGSpacing_DEFAULT;
	distance_AB 0.147636;
	distance_BC 0.147636;
	distance_AC 0.295272;
}

// OHSpacing_TRIANGULAR_3P_35
object line_spacing {
	name OHSpacing_TRIANGULAR_3P_35;
	distance_AB 2.9166312;
	distance_BC 2.9166312;
	distance_AC 2.9166312;
	distance_AN 5.49993312;
	distance_BN 5.49993312;
	distance_CN 5.49993312;
}

// UGSpacing_1/0_AL_XLP-CON-ENCP-PE_22KV_2P
object line_spacing {
	name UGSpacing_1/0_AL_XLP-CON-ENCP-PE_22KV_2P;
	distance_AB 0.147636;
	distance_BC 0.0;
	distance_AC 0.0;
}

// UGSpacing_2_AL_XLP-CONC-CIC_22KV_2P
object line_spacing {
	name UGSpacing_2_AL_XLP-CONC-CIC_22KV_2P;
	distance_AB 0.147636;
	distance_BC 0.0;
	distance_AC 0.0;
}

// OHSpacing_HORIZONTAL_3P_52
object line_spacing {
	name OHSpacing_HORIZONTAL_3P_52;
	distance_AB 4.3332773592;
	distance_BC 4.3332773592;
	distance_AC 4.3332773592;
	distance_AN 6.6665888808;
	distance_BN 6.6665888808;
	distance_CN 6.6665888808;
}

// UGSpacing_1/0_AL_XLP-CONC-PVC_22KV_3P
object line_spacing {
	name UGSpacing_1/0_AL_XLP-CONC-PVC_22KV_3P;
	distance_AB 0.147636;
	distance_BC 0.147636;
	distance_AC 0.295272;
}

// UGSpacing_2_AL_XLP-CONC-PVC_22KV_3P
object line_spacing {
	name UGSpacing_2_AL_XLP-CONC-PVC_22KV_3P;
	distance_AB 0.147636;
	distance_BC 0.147636;
	distance_AC 0.295272;
}

// UGSpacing_1/0_AL_EPR-CONC-ENCAP-PE_2P
object line_spacing {
	name UGSpacing_1/0_AL_EPR-CONC-ENCAP-PE_2P;
	distance_AB 0.147636;
	distance_BC 0.0;
	distance_AC 0.0;
}

// UGSpacing_600_AL_EPR-CONC-ENCAP-PE_3P
object line_spacing {
	name UGSpacing_600_AL_EPR-CONC-ENCAP-PE_3P;
	distance_AB 0.147636;
	distance_BC 0.147636;
	distance_AC 0.295272;
}

// UGSpacing_1100_AL_EPR-CONC-ENCAP-PE_3P
object line_spacing {
	name UGSpacing_1100_AL_EPR-CONC-ENCAP-PE_3P;
	distance_AB 0.147636;
	distance_BC 0.147636;
	distance_AC 0.295272;
}

// OHSpacing_HORIZONTAL_2P_45
object line_spacing {
	name OHSpacing_HORIZONTAL_2P_45;
	distance_AB 3.7499544;
	distance_BC 3.7499544;
	distance_AC 3.7499544;
	distance_AN 4.9999392;
	distance_BN 4.9999392;
	distance_CN 4.9999392;
}

// UGSpacing_2_AL_PEC_22KV_2P
object line_spacing {
	name UGSpacing_2_AL_PEC_22KV_2P;
	distance_AB 0.147636;
	distance_BC 0.0;
	distance_AC 0.0;
}

// UGSpacing_700_AL_XLP-CONC-PVC_22KV_3P
object line_spacing {
	name UGSpacing_700_AL_XLP-CONC-PVC_22KV_3P;
	distance_AB 0.147636;
	distance_BC 0.147636;
	distance_AC 0.295272;
}

//*********************************************
// Line Config objects
//*********************************************
// L_1200094088_LineConfig
object line_configuration {
	name L_1200094088_LineConfig;
	conductor_A OHCond_4_ACSR_I;
	conductor_B OHCond_4_ACSR_I;
	conductor_C OHCond_4_ACSR_I;
	spacing OHSpacing_HORIZONTAL_3P_52;
}

// L_1200037610_LineConfig
object line_configuration {
	name L_1200037610_LineConfig;
	conductor_A OHCond_6_CU_I;
	conductor_B OHCond_6_CU_I;
	conductor_C OHCond_6_CU_I;
	spacing OHSpacing_HORIZONTAL_3P_52;
}

// L_1200060062_LineConfig
object line_configuration {
	name L_1200060062_LineConfig;
	conductor_A OHCond_4/0_ACSR_I;
	conductor_B OHCond_4/0_ACSR_I;
	conductor_C OHCond_4/0_ACSR_I;
	spacing OHSpacing_HORIZONTAL_3P_52;
}

// L_1200016884_LineConfig
object line_configuration {
	name L_1200016884_LineConfig;
	conductor_A OHCond_2_CU_I;
	conductor_B OHCond_2_CU_I;
	conductor_C OHCond_2_CU_I;
	spacing OHSpacing_HORIZONTAL_3P_52;
}

// L_1200100378_LineConfig
object line_configuration {
	name L_1200100378_LineConfig;
	conductor_A OHCond_4_ACSR_I;
	conductor_B OHCond_4_ACSR_I;
	conductor_C OHCond_4_ACSR_I;
	spacing OHSpacing_HORIZONTAL_3P_52;
}

// L_1200092396-P_LineConfig
object line_configuration {
	name L_1200092396-P_LineConfig;
	conductor_A OHCond_1/0_CU_I;
	conductor_B OHCond_1/0_CU_I;
	conductor_C OHCond_1/0_CU_I;
	spacing OHSpacing_HORIZONTAL_3P_52;
}

// L_1200173413_LineConfig
object line_configuration {
	name L_1200173413_LineConfig;
	conductor_A OHCond_6_CU_I;
	conductor_B OHCond_6_CU_I;
	conductor_C OHCond_6_CU_I;
	spacing OHSpacing_HORIZONTAL_3P_52;
}

// L_1200118820_LineConfig
object line_configuration {
	name L_1200118820_LineConfig;
	conductor_A OHCond_4_CU_I;
	conductor_B OHCond_4_CU_I;
	conductor_C OHCond_4_CU_I;
	spacing OHSpacing_HORIZONTAL_3P_52;
}

// L_1200101072_LineConfig
object line_configuration {
	name L_1200101072_LineConfig;
	conductor_A OHCond_1_CU_I;
	conductor_B OHCond_1_CU_I;
	conductor_C OHCond_1_CU_I;
	spacing OHSpacing_HORIZONTAL_3P_52;
}

// L_1200092415_LineConfig
object line_configuration {
	name L_1200092415_LineConfig;
	conductor_A OHCond_4_ACSR_I;
	conductor_B OHCond_4_ACSR_I;
	conductor_C OHCond_4_ACSR_I;
	spacing OHSpacing_HORIZONTAL_3P_52;
}

// L_1200092389-P_LineConfig
object line_configuration {
	name L_1200092389-P_LineConfig;
	conductor_A OHCond_1/0_CU_I;
	conductor_B OHCond_1/0_CU_I;
	conductor_C OHCond_1/0_CU_I;
	spacing OHSpacing_HORIZONTAL_3P_52;
}

// L_1200154579_LineConfig
object line_configuration {
	name L_1200154579_LineConfig;
	conductor_A OHCond_6_CU_I;
	conductor_B OHCond_6_CU_I;
	conductor_C OHCond_6_CU_I;
	spacing OHSpacing_HORIZONTAL_3P_52;
}

// L_1200155084_LineConfig
object line_configuration {
	name L_1200155084_LineConfig;
	conductor_A OHCond_6_CU_I;
	conductor_B OHCond_6_CU_I;
	conductor_C OHCond_6_CU_I;
	spacing OHSpacing_HORIZONTAL_3P_52;
}

// L_1200048765_LineConfig
object line_configuration {
	name L_1200048765_LineConfig;
	conductor_A OHCond_2_CU_I;
	conductor_B OHCond_2_CU_I;
	conductor_C OHCond_2_CU_I;
	spacing OHSpacing_HORIZONTAL_3P_52;
}

// L_1200154849_LineConfig
object line_configuration {
	name L_1200154849_LineConfig;
	conductor_A OHCond_6_CU_I;
	conductor_B OHCond_6_CU_I;
	conductor_C OHCond_6_CU_I;
	spacing OHSpacing_HORIZONTAL_3P_52;
}

// L_1200154628_LineConfig
object line_configuration {
	name L_1200154628_LineConfig;
	conductor_A OHCond_4_CU_I;
	conductor_B OHCond_4_CU_I;
	conductor_C OHCond_4_CU_I;
	spacing OHSpacing_HORIZONTAL_3P_52;
}

// L_1200213867_LineConfig
object line_configuration {
	name L_1200213867_LineConfig;
	conductor_A OHCond_715_AAC_I;
	conductor_B OHCond_715_AAC_I;
	conductor_C OHCond_715_AAC_I;
	spacing OHSpacing_HORIZONTAL_3P_52;
}

// L_1200155201_LineConfig
object line_configuration {
	name L_1200155201_LineConfig;
	conductor_A OHCond_397_AAC_I;
	conductor_B OHCond_397_AAC_I;
	conductor_C OHCond_397_AAC_I;
	spacing OHSpacing_HORIZONTAL_3P_52;
}

// L_1200155206_LineConfig
object line_configuration {
	name L_1200155206_LineConfig;
	conductor_A OHCond_4_ACSR_I;
	conductor_B OHCond_4_ACSR_I;
	conductor_C OHCond_4_ACSR_I;
	spacing OHSpacing_HORIZONTAL_3P_52;
}

// L_1200061342_LineConfig
object line_configuration {
	name L_1200061342_LineConfig;
	conductor_A OHCond_6_CU_I;
	conductor_B OHCond_6_CU_I;
	conductor_C OHCond_6_CU_I;
	spacing OHSpacing_HORIZONTAL_3P_52;
}

// L_1200154552_LineConfig
object line_configuration {
	name L_1200154552_LineConfig;
	conductor_A OHCond_6_CU_I;
	conductor_B OHCond_6_CU_I;
	conductor_C OHCond_6_CU_I;
	spacing OHSpacing_HORIZONTAL_3P_52;
}

// L_1200018122_LineConfig
object line_configuration {
	name L_1200018122_LineConfig;
	conductor_A OHCond_1/0_CU_I;
	conductor_B OHCond_1/0_CU_I;
	conductor_C OHCond_1/0_CU_I;
	spacing OHSpacing_HORIZONTAL_3P_52;
}

// L_1200155200_LineConfig
object line_configuration {
	name L_1200155200_LineConfig;
	conductor_A OHCond_397_AAC_I;
	conductor_B OHCond_397_AAC_I;
	conductor_C OHCond_397_AAC_I;
	spacing OHSpacing_HORIZONTAL_3P_52;
}

// L_1200017028_LineConfig
object line_configuration {
	name L_1200017028_LineConfig;
	conductor_A OHCond_6_CU_I;
	conductor_B OHCond_6_CU_I;
	conductor_C OHCond_6_CU_I;
	spacing OHSpacing_HORIZONTAL_3P_52;
}

// L_1200154546_LineConfig
object line_configuration {
	name L_1200154546_LineConfig;
	conductor_A OHCond_4_ACSR_I;
	conductor_B OHCond_4_ACSR_I;
	spacing OHSpacing_HORIZONTAL_2P_52;
}

// L_1200059910_LineConfig
object line_configuration {
	name L_1200059910_LineConfig;
	conductor_A OHCond_1/0_CU_I;
	conductor_B OHCond_1/0_CU_I;
	conductor_C OHCond_1/0_CU_I;
	spacing OHSpacing_HORIZONTAL_3P_52;
}

// L_1200154669_LineConfig
object line_configuration {
	name L_1200154669_LineConfig;
	conductor_A OHCond_6_CU_I;
	conductor_B OHCond_6_CU_I;
	conductor_C OHCond_6_CU_I;
	spacing OHSpacing_HORIZONTAL_3P_52;
}

// L_1200004321_LineConfig
object line_configuration {
	name L_1200004321_LineConfig;
	conductor_A OHCond_2_CU_I;
	conductor_B OHCond_2_CU_I;
	conductor_C OHCond_2_CU_I;
	spacing OHSpacing_HORIZONTAL_3P_52;
}

// L_1200217904_LineConfig
object line_configuration {
	name L_1200217904_LineConfig;
	conductor_A OHCond_4_ACSR_I;
	conductor_B OHCond_4_ACSR_I;
	conductor_C OHCond_4_ACSR_I;
	spacing OHSpacing_HORIZONTAL_3P_52;
}

// L_1200170834_LineConfig
object line_configuration {
	name L_1200170834_LineConfig;
	conductor_A OHCond_4_ACSR_I;
	conductor_B OHCond_4_ACSR_I;
	conductor_C OHCond_4_ACSR_I;
	spacing OHSpacing_HORIZONTAL_3P_52;
}

// L_1200060110_LineConfig
object line_configuration {
	name L_1200060110_LineConfig;
	conductor_A OHCond_6_CU_I;
	conductor_B OHCond_6_CU_I;
	conductor_C OHCond_6_CU_I;
	spacing OHSpacing_HORIZONTAL_3P_52;
}

// L_1200154506_LineConfig
object line_configuration {
	name L_1200154506_LineConfig;
	conductor_A OHCond_4_ACSR_I;
	conductor_B OHCond_4_ACSR_I;
	spacing OHSpacing_HORIZONTAL_2P_52;
}

// L_1200018517_LineConfig
object line_configuration {
	name L_1200018517_LineConfig;
	conductor_A OHCond_3/0_CU_I;
	conductor_B OHCond_3/0_CU_I;
	conductor_C OHCond_3/0_CU_I;
	spacing OHSpacing_HORIZONTAL_3P_52;
}

// L_1200154936_LineConfig
object line_configuration {
	name L_1200154936_LineConfig;
	conductor_A OHCond_4_ACSR_I;
	conductor_B OHCond_4_ACSR_I;
	conductor_C OHCond_4_ACSR_I;
	spacing OHSpacing_HORIZONTAL_3P_52;
}

// L_1200154677_LineConfig
object line_configuration {
	name L_1200154677_LineConfig;
	conductor_A OHCond_2_CU_I;
	conductor_B OHCond_2_CU_I;
	conductor_C OHCond_2_CU_I;
	spacing OHSpacing_HORIZONTAL_3P_52;
}

// L_1200154455_LineConfig
object line_configuration {
	name L_1200154455_LineConfig;
	conductor_A OHCond_3/0_CU_I;
	conductor_B OHCond_3/0_CU_I;
	conductor_C OHCond_3/0_CU_I;
	spacing OHSpacing_HORIZONTAL_3P_52;
}

// L_1200169821_LineConfig
object line_configuration {
	name L_1200169821_LineConfig;
	conductor_A OHCond_4_CU_I;
	conductor_B OHCond_4_CU_I;
	conductor_C OHCond_4_CU_I;
	spacing OHSpacing_HORIZONTAL_3P_52;
}

// L_1200184614_LineConfig
object line_configuration {
	name L_1200184614_LineConfig;
	conductor_A OHCond_6_CU_I;
	conductor_B OHCond_6_CU_I;
	conductor_C OHCond_6_CU_I;
	spacing OHSpacing_HORIZONTAL_3P_52;
}

// L_1200154981_LineConfig
object line_configuration {
	name L_1200154981_LineConfig;
	conductor_A OHCond_4_ACSR_I;
	conductor_B OHCond_4_ACSR_I;
	conductor_C OHCond_4_ACSR_I;
	spacing OHSpacing_HORIZONTAL_3P_52;
}

// L_1200155141_LineConfig
object line_configuration {
	name L_1200155141_LineConfig;
	conductor_A OHCond_4_ACSR_I;
	conductor_B OHCond_4_ACSR_I;
	conductor_C OHCond_4_ACSR_I;
	spacing OHSpacing_TRIANGULAR_3P_35;
}

// L_1200061335_LineConfig
object line_configuration {
	name L_1200061335_LineConfig;
	conductor_A OHCond_4/0_AAC_I;
	conductor_B OHCond_4/0_AAC_I;
	conductor_C OHCond_4/0_AAC_I;
	spacing OHSpacing_HORIZONTAL_3P_52;
}

// L_1200154498_LineConfig
object line_configuration {
	name L_1200154498_LineConfig;
	conductor_A OHCond_6_CU_I;
	conductor_B OHCond_6_CU_I;
	conductor_C OHCond_6_CU_I;
	spacing OHSpacing_HORIZONTAL_3P_52;
}

// L_1200154457_LineConfig
object line_configuration {
	name L_1200154457_LineConfig;
	conductor_A OHCond_4_ACSR_I;
	conductor_B OHCond_4_ACSR_I;
	spacing OHSpacing_HORIZONTAL_2P_52;
}

// L_1200154524_LineConfig
object line_configuration {
	name L_1200154524_LineConfig;
	conductor_A OHCond_6_CU_I;
	conductor_B OHCond_6_CU_I;
	conductor_C OHCond_6_CU_I;
	spacing OHSpacing_HORIZONTAL_3P_52;
}

// L_1200148365_LineConfig
object line_configuration {
	name L_1200148365_LineConfig;
	conductor_A OHCond_4_CU_I;
	conductor_B OHCond_4_CU_I;
	conductor_C OHCond_4_CU_I;
	spacing OHSpacing_HORIZONTAL_3P_52;
}

// L_1200176651_LineConfig
object line_configuration {
	name L_1200176651_LineConfig;
	conductor_A OHCond_4_ACSR_I;
	conductor_B OHCond_4_ACSR_I;
	conductor_C OHCond_4_ACSR_I;
	spacing OHSpacing_HORIZONTAL_3P_52;
}

// L_1200155033_LineConfig
object line_configuration {
	name L_1200155033_LineConfig;
	conductor_A OHCond_4_ACSR_I;
	conductor_B OHCond_4_ACSR_I;
	conductor_C OHCond_4_ACSR_I;
	spacing OHSpacing_HORIZONTAL_3P_52;
}

// L_1200203683_LineConfig
object line_configuration {
	name L_1200203683_LineConfig;
	conductor_A OHCond_4_CU_I;
	conductor_B OHCond_4_CU_I;
	conductor_C OHCond_4_CU_I;
	spacing OHSpacing_HORIZONTAL_3P_52;
}

// L_1200017029_LineConfig
object line_configuration {
	name L_1200017029_LineConfig;
	conductor_A OHCond_1/0_CU_I;
	conductor_B OHCond_1/0_CU_I;
	conductor_C OHCond_1/0_CU_I;
	spacing OHSpacing_HORIZONTAL_3P_52;
}

// L_1200212848_LineConfig
object line_configuration {
	name L_1200212848_LineConfig;
	conductor_A OHCond_4/0_AAC_I;
	conductor_B OHCond_4/0_AAC_I;
	conductor_C OHCond_4/0_AAC_I;
	spacing OHSpacing_HORIZONTAL_3P_52;
}

// L_1200154482_LineConfig
object line_configuration {
	name L_1200154482_LineConfig;
	conductor_A OHCond_2_CU_I;
	conductor_B OHCond_2_CU_I;
	conductor_C OHCond_2_CU_I;
	spacing OHSpacing_HORIZONTAL_3P_52;
}

// L_1200175013_LineConfig
object line_configuration {
	name L_1200175013_LineConfig;
	conductor_A OHCond_6_CU_I;
	conductor_B OHCond_6_CU_I;
	conductor_C OHCond_6_CU_I;
	spacing OHSpacing_HORIZONTAL_3P_52;
}

// L_1200155012_LineConfig
object line_configuration {
	name L_1200155012_LineConfig;
	conductor_A OHCond_6_CU_I;
	conductor_B OHCond_6_CU_I;
	conductor_C OHCond_6_CU_I;
	spacing OHSpacing_HORIZONTAL_3P_52;
}

// L_1200155090_LineConfig
object line_configuration {
	name L_1200155090_LineConfig;
	conductor_A OHCond_1/0_CU_I;
	conductor_B OHCond_1/0_CU_I;
	conductor_C OHCond_1/0_CU_I;
	spacing OHSpacing_HORIZONTAL_3P_52;
}

// L_1200169949_LineConfig
object line_configuration {
	name L_1200169949_LineConfig;
	conductor_A OHCond_6_CU_I;
	conductor_B OHCond_6_CU_I;
	conductor_C OHCond_6_CU_I;
	spacing OHSpacing_HORIZONTAL_3P_52;
}

// L_1200154460_LineConfig
object line_configuration {
	name L_1200154460_LineConfig;
	conductor_A OHCond_2_CU_I;
	conductor_B OHCond_2_CU_I;
	conductor_C OHCond_2_CU_I;
	spacing OHSpacing_HORIZONTAL_3P_52;
}

// L_1200068281_LineConfig
object line_configuration {
	name L_1200068281_LineConfig;
	conductor_A OHCond_6_CU_I;
	conductor_B OHCond_6_CU_I;
	conductor_C OHCond_6_CU_I;
	spacing OHSpacing_HORIZONTAL_3P_52;
}

// L_1200151249_LineConfig
object line_configuration {
	name L_1200151249_LineConfig;
	conductor_A OHCond_2_CU_I;
	conductor_B OHCond_2_CU_I;
	conductor_C OHCond_2_CU_I;
	spacing OHSpacing_HORIZONTAL_3P_52;
}

// L_1200155130_LineConfig
object line_configuration {
	name L_1200155130_LineConfig;
	conductor_A OHCond_4_ACSR_I;
	conductor_B OHCond_4_ACSR_I;
	conductor_C OHCond_4_ACSR_I;
	spacing OHSpacing_HORIZONTAL_3P_52;
}

// L_1200154995_LineConfig
object line_configuration {
	name L_1200154995_LineConfig;
	conductor_A OHCond_4_ACSR_I;
	conductor_B OHCond_4_ACSR_I;
	conductor_C OHCond_4_ACSR_I;
	spacing OHSpacing_HORIZONTAL_3P_52;
}

// L_1200154278_LineConfig
object line_configuration {
	name L_1200154278_LineConfig;
	conductor_A OHCond_6_CU_I;
	conductor_B OHCond_6_CU_I;
	conductor_C OHCond_6_CU_I;
	spacing OHSpacing_HORIZONTAL_3P_52;
}

// L_1200017144_LineConfig
object line_configuration {
	name L_1200017144_LineConfig;
	conductor_A OHCond_1/0_CU_I;
	conductor_B OHCond_1/0_CU_I;
	conductor_C OHCond_1/0_CU_I;
	spacing OHSpacing_HORIZONTAL_3P_52;
}

// L_1200017144-P_LineConfig
object line_configuration {
	name L_1200017144-P_LineConfig;
	conductor_A OHCond_1/0_CU_I;
	conductor_B OHCond_1/0_CU_I;
	conductor_C OHCond_1/0_CU_I;
	spacing OHSpacing_HORIZONTAL_3P_52;
}

// L_1200155240_LineConfig
object line_configuration {
	name L_1200155240_LineConfig;
	conductor_A OHCond_6_CU_I;
	conductor_B OHCond_6_CU_I;
	conductor_C OHCond_6_CU_I;
	spacing OHSpacing_HORIZONTAL_3P_52;
}

// L_1200016940_LineConfig
object line_configuration {
	name L_1200016940_LineConfig;
	conductor_A OHCond_4_ACSR_I;
	conductor_B OHCond_4_ACSR_I;
	conductor_C OHCond_4_ACSR_I;
	spacing OHSpacing_HORIZONTAL_3P_52;
}

// L_1200089095_LineConfig
object line_configuration {
	name L_1200089095_LineConfig;
	conductor_A OHCond_4_ACSR_I;
	conductor_B OHCond_4_ACSR_I;
	spacing OHSpacing_HORIZONTAL_2P_88;
}

// L_1200094091_LineConfig
object line_configuration {
	name L_1200094091_LineConfig;
	conductor_A OHCond_6_CU_I;
	conductor_B OHCond_6_CU_I;
	conductor_C OHCond_6_CU_I;
	spacing OHSpacing_HORIZONTAL_3P_52;
}

// L_1200096459_LineConfig
object line_configuration {
	name L_1200096459_LineConfig;
	conductor_A OHCond_6_CU_I;
	conductor_B OHCond_6_CU_I;
	conductor_C OHCond_6_CU_I;
	spacing OHSpacing_HORIZONTAL_3P_52;
}

// L_1200061359_LineConfig
object line_configuration {
	name L_1200061359_LineConfig;
	conductor_A OHCond_397_AAC_I;
	conductor_B OHCond_397_AAC_I;
	conductor_C OHCond_397_AAC_I;
	spacing OHSpacing_HORIZONTAL_3P_52;
}

// L_1200154736_LineConfig
object line_configuration {
	name L_1200154736_LineConfig;
	conductor_A OHCond_4_CU_I;
	conductor_B OHCond_4_CU_I;
	conductor_C OHCond_4_CU_I;
	spacing OHSpacing_HORIZONTAL_3P_52;
}

// L_1200154508_LineConfig
object line_configuration {
	name L_1200154508_LineConfig;
	conductor_A OHCond_6_CU_I;
	conductor_B OHCond_6_CU_I;
	conductor_C OHCond_6_CU_I;
	spacing OHSpacing_HORIZONTAL_3P_52;
}

// L_1200154484_LineConfig
object line_configuration {
	name L_1200154484_LineConfig;
	conductor_A OHCond_2_CU_I;
	conductor_B OHCond_2_CU_I;
	conductor_C OHCond_2_CU_I;
	spacing OHSpacing_HORIZONTAL_3P_52;
}

// L_1200061341_LineConfig
object line_configuration {
	name L_1200061341_LineConfig;
	conductor_A OHCond_6_CU_I;
	conductor_B OHCond_6_CU_I;
	conductor_C OHCond_6_CU_I;
	spacing OHSpacing_HORIZONTAL_3P_52;
}

// L_1200101728_LineConfig
object line_configuration {
	name L_1200101728_LineConfig;
	conductor_A OHCond_6_CU_I;
	conductor_B OHCond_6_CU_I;
	conductor_C OHCond_6_CU_I;
	spacing OHSpacing_HORIZONTAL_3P_52;
}

// L_1200154610_LineConfig
object line_configuration {
	name L_1200154610_LineConfig;
	conductor_A OHCond_6_CU_I;
	conductor_B OHCond_6_CU_I;
	conductor_C OHCond_6_CU_I;
	spacing OHSpacing_HORIZONTAL_3P_52;
}

// L_1200017026_LineConfig
object line_configuration {
	name L_1200017026_LineConfig;
	conductor_A OHCond_1/0_CU_I;
	conductor_B OHCond_1/0_CU_I;
	conductor_C OHCond_1/0_CU_I;
	spacing OHSpacing_HORIZONTAL_3P_52;
}

// L_1200155016_LineConfig
object line_configuration {
	name L_1200155016_LineConfig;
	conductor_A OHCond_4/0_AAC_I;
	conductor_B OHCond_4/0_AAC_I;
	conductor_C OHCond_4/0_AAC_I;
	spacing OHSpacing_HORIZONTAL_3P_52;
}

// L_1200061347_LineConfig
object line_configuration {
	name L_1200061347_LineConfig;
	conductor_A OHCond_397_AAC_I;
	conductor_B OHCond_397_AAC_I;
	conductor_C OHCond_397_AAC_I;
	spacing OHSpacing_HORIZONTAL_3P_52;
}

// L_1200018468_LineConfig
object line_configuration {
	name L_1200018468_LineConfig;
	conductor_A OHCond_397_AAC_I;
	conductor_B OHCond_397_AAC_I;
	conductor_C OHCond_397_AAC_I;
	spacing OHSpacing_HORIZONTAL_3P_52;
}

// L_1200154688_LineConfig
object line_configuration {
	name L_1200154688_LineConfig;
	conductor_A OHCond_6_CU_I;
	conductor_B OHCond_6_CU_I;
	conductor_C OHCond_6_CU_I;
	spacing OHSpacing_HORIZONTAL_3P_52;
}

// L_1200118807_LineConfig
object line_configuration {
	name L_1200118807_LineConfig;
	conductor_A OHCond_4_ACSR_I;
	conductor_B OHCond_4_ACSR_I;
	conductor_C OHCond_4_ACSR_I;
	spacing OHSpacing_HORIZONTAL_3P_52;
}

// L_1200155056_LineConfig
object line_configuration {
	name L_1200155056_LineConfig;
	conductor_C OHCond_4_CU_I;
	spacing OHSpacing_HORIZONTAL_1P_52;
}

// L_1200154892_LineConfig
object line_configuration {
	name L_1200154892_LineConfig;
	conductor_A OHCond_1_CU_I;
	conductor_B OHCond_1_CU_I;
	conductor_C OHCond_1_CU_I;
	spacing OHSpacing_HORIZONTAL_3P_52;
}

// L_1200154318_LineConfig
object line_configuration {
	name L_1200154318_LineConfig;
	conductor_A OHCond_6_CU_I;
	conductor_B OHCond_6_CU_I;
	conductor_C OHCond_6_CU_I;
	spacing OHSpacing_HORIZONTAL_3P_52;
}

// L_1200154645_LineConfig
object line_configuration {
	name L_1200154645_LineConfig;
	conductor_A OHCond_2_CU_I;
	conductor_B OHCond_2_CU_I;
	conductor_C OHCond_2_CU_I;
	spacing OHSpacing_HORIZONTAL_3P_52;
}

// L_1200155058_LineConfig
object line_configuration {
	name L_1200155058_LineConfig;
	conductor_A OHCond_4_ACSR_I;
	conductor_B OHCond_4_ACSR_I;
	spacing OHSpacing_HORIZONTAL_2P_88;
}

// L_1200016947_LineConfig
object line_configuration {
	name L_1200016947_LineConfig;
	conductor_A OHCond_6_CU_I;
	conductor_B OHCond_6_CU_I;
	conductor_C OHCond_6_CU_I;
	spacing OHSpacing_HORIZONTAL_3P_52;
}

// L_1200155162_LineConfig
object line_configuration {
	name L_1200155162_LineConfig;
	conductor_A OHCond_4_ACSR_I;
	conductor_B OHCond_4_ACSR_I;
	conductor_C OHCond_4_ACSR_I;
	spacing OHSpacing_HORIZONTAL_3P_52;
}

// L_1200154440_LineConfig
object line_configuration {
	name L_1200154440_LineConfig;
	conductor_A OHCond_6_CU_I;
	conductor_B OHCond_6_CU_I;
	conductor_C OHCond_6_CU_I;
	spacing OHSpacing_HORIZONTAL_3P_52;
}

// L_1200155074_LineConfig
object line_configuration {
	name L_1200155074_LineConfig;
	conductor_A OHCond_6_CU_I;
	conductor_B OHCond_6_CU_I;
	conductor_C OHCond_6_CU_I;
	spacing OHSpacing_HORIZONTAL_3P_52;
}

// L_1200016934_LineConfig
object line_configuration {
	name L_1200016934_LineConfig;
	conductor_A OHCond_6_CU_I;
	conductor_B OHCond_6_CU_I;
	conductor_C OHCond_6_CU_I;
	spacing OHSpacing_HORIZONTAL_3P_52;
}

// L_1200101070_LineConfig
object line_configuration {
	name L_1200101070_LineConfig;
	conductor_A OHCond_1_CU_I;
	conductor_B OHCond_1_CU_I;
	conductor_C OHCond_1_CU_I;
	spacing OHSpacing_HORIZONTAL_3P_52;
}

// L_1200154967_LineConfig
object line_configuration {
	name L_1200154967_LineConfig;
	conductor_A OHCond_6_CU_I;
	conductor_B OHCond_6_CU_I;
	conductor_C OHCond_6_CU_I;
	spacing OHSpacing_HORIZONTAL_3P_52;
}

// L_1200154793_LineConfig
object line_configuration {
	name L_1200154793_LineConfig;
	conductor_A OHCond_6_CU_I;
	conductor_B OHCond_6_CU_I;
	conductor_C OHCond_6_CU_I;
	spacing OHSpacing_HORIZONTAL_3P_52;
}

// L_1200154918_LineConfig
object line_configuration {
	name L_1200154918_LineConfig;
	conductor_A OHCond_4_ACSR_I;
	conductor_B OHCond_4_ACSR_I;
	conductor_C OHCond_4_ACSR_I;
	spacing OHSpacing_HORIZONTAL_3P_52;
}

// L_1200154493_LineConfig
object line_configuration {
	name L_1200154493_LineConfig;
	conductor_A OHCond_6_CU_I;
	conductor_B OHCond_6_CU_I;
	conductor_C OHCond_6_CU_I;
	spacing OHSpacing_HORIZONTAL_3P_52;
}

// L_1200061102_LineConfig
object line_configuration {
	name L_1200061102_LineConfig;
	conductor_A OHCond_6_CU_I;
	conductor_B OHCond_6_CU_I;
	conductor_C OHCond_6_CU_I;
	spacing OHSpacing_HORIZONTAL_3P_52;
}

// L_1200154672_LineConfig
object line_configuration {
	name L_1200154672_LineConfig;
	conductor_A OHCond_6_CU_I;
	conductor_B OHCond_6_CU_I;
	conductor_C OHCond_6_CU_I;
	spacing OHSpacing_HORIZONTAL_3P_52;
}

// L_1200064260_LineConfig
object line_configuration {
	name L_1200064260_LineConfig;
	conductor_A OHCond_715_AAC_I;
	conductor_B OHCond_715_AAC_I;
	conductor_C OHCond_715_AAC_I;
	spacing OHSpacing_HORIZONTAL_3P_52;
}

// L_1200154830_LineConfig
object line_configuration {
	name L_1200154830_LineConfig;
	conductor_A OHCond_4_ACSR_I;
	conductor_B OHCond_4_ACSR_I;
	conductor_C OHCond_4_ACSR_I;
	spacing OHSpacing_HORIZONTAL_3P_52;
}

// L_1200154743_LineConfig
object line_configuration {
	name L_1200154743_LineConfig;
	conductor_A OHCond_4_CU_I;
	conductor_B OHCond_4_CU_I;
	conductor_C OHCond_4_CU_I;
	spacing OHSpacing_HORIZONTAL_3P_52;
}

// L_1200110036_LineConfig
object line_configuration {
	name L_1200110036_LineConfig;
	conductor_A OHCond_2_CU_I;
	conductor_B OHCond_2_CU_I;
	conductor_C OHCond_2_CU_I;
	spacing OHSpacing_HORIZONTAL_3P_52;
}

// L_1200091752_LineConfig
object line_configuration {
	name L_1200091752_LineConfig;
	conductor_A OHCond_2_CU_I;
	conductor_B OHCond_2_CU_I;
	conductor_C OHCond_2_CU_I;
	spacing OHSpacing_HORIZONTAL_3P_52;
}

// L_1200155213_LineConfig
object line_configuration {
	name L_1200155213_LineConfig;
	conductor_A OHCond_1/0_CU_I;
	conductor_B OHCond_1/0_CU_I;
	conductor_C OHCond_1/0_CU_I;
	spacing OHSpacing_HORIZONTAL_3P_52;
}

// L_1200049428_LineConfig
object line_configuration {
	name L_1200049428_LineConfig;
	conductor_A OHCond_3/0_AAC_I;
	conductor_B OHCond_3/0_AAC_I;
	conductor_C OHCond_3/0_AAC_I;
	spacing OHSpacing_HORIZONTAL_3P_52;
}

// L_1200061361_LineConfig
object line_configuration {
	name L_1200061361_LineConfig;
	conductor_A OHCond_6_CU_I;
	conductor_B OHCond_6_CU_I;
	spacing OHSpacing_HORIZONTAL_2P_88;
}

// L_1200155247_LineConfig
object line_configuration {
	name L_1200155247_LineConfig;
	conductor_A OHCond_6_CU_I;
	conductor_B OHCond_6_CU_I;
	conductor_C OHCond_6_CU_I;
	spacing OHSpacing_HORIZONTAL_3P_52;
}

// L_1200068768_LineConfig
object line_configuration {
	name L_1200068768_LineConfig;
	conductor_A OHCond_4_ACSR_I;
	conductor_B OHCond_4_ACSR_I;
	conductor_C OHCond_4_ACSR_I;
	spacing OHSpacing_TRIANGULAR_3P_35;
}

// L_1200061104_LineConfig
object line_configuration {
	name L_1200061104_LineConfig;
	conductor_C OHCond_4_CU_I;
	spacing OHSpacing_HORIZONTAL_1P_52;
}

// L_1200154540_LineConfig
object line_configuration {
	name L_1200154540_LineConfig;
	conductor_A OHCond_6_CU_I;
	conductor_B OHCond_6_CU_I;
	conductor_C OHCond_6_CU_I;
	spacing OHSpacing_HORIZONTAL_3P_52;
}

// L_1200154692_LineConfig
object line_configuration {
	name L_1200154692_LineConfig;
	conductor_A OHCond_4/0_AAC_I;
	conductor_B OHCond_4/0_AAC_I;
	conductor_C OHCond_4/0_AAC_I;
	spacing OHSpacing_HORIZONTAL_3P_52;
}

// L_1200154685_LineConfig
object line_configuration {
	name L_1200154685_LineConfig;
	conductor_A OHCond_2_CU_I;
	conductor_B OHCond_2_CU_I;
	conductor_C OHCond_2_CU_I;
	spacing OHSpacing_HORIZONTAL_3P_52;
}

// L_1200091242_LineConfig
object line_configuration {
	name L_1200091242_LineConfig;
	conductor_A OHCond_4_ACSR_I;
	conductor_B OHCond_4_ACSR_I;
	conductor_C OHCond_4_ACSR_I;
	spacing OHSpacing_HORIZONTAL_3P_52;
}

// L_1200089745_LineConfig
object line_configuration {
	name L_1200089745_LineConfig;
	conductor_A OHCond_1_CU_I;
	conductor_B OHCond_1_CU_I;
	conductor_C OHCond_1_CU_I;
	spacing OHSpacing_HORIZONTAL_3P_52;
}

// L_1200155243_LineConfig
object line_configuration {
	name L_1200155243_LineConfig;
	conductor_A OHCond_6_CU_I;
	conductor_B OHCond_6_CU_I;
	conductor_C OHCond_6_CU_I;
	spacing OHSpacing_HORIZONTAL_3P_52;
}

// L_1200091249_LineConfig
object line_configuration {
	name L_1200091249_LineConfig;
	conductor_A OHCond_6_CU_I;
	conductor_B OHCond_6_CU_I;
	conductor_C OHCond_6_CU_I;
	spacing OHSpacing_HORIZONTAL_3P_52;
}

// L_1200060060_LineConfig
object line_configuration {
	name L_1200060060_LineConfig;
	conductor_A OHCond_4/0_AAC_I;
	conductor_B OHCond_4/0_AAC_I;
	conductor_C OHCond_4/0_AAC_I;
	spacing OHSpacing_HORIZONTAL_3P_52;
}

// L_1200154424_LineConfig
object line_configuration {
	name L_1200154424_LineConfig;
	conductor_A OHCond_6_CU_I;
	conductor_B OHCond_6_CU_I;
	conductor_C OHCond_6_CU_I;
	spacing OHSpacing_HORIZONTAL_3P_52;
}

// L_1200097599_LineConfig
object line_configuration {
	name L_1200097599_LineConfig;
	conductor_A OHCond_4_ACSR_I;
	conductor_B OHCond_4_ACSR_I;
	conductor_C OHCond_4_ACSR_I;
	spacing OHSpacing_HORIZONTAL_3P_52;
}

// L_1200154562_LineConfig
object line_configuration {
	name L_1200154562_LineConfig;
	conductor_A OHCond_4_ACSR_I;
	conductor_B OHCond_4_ACSR_I;
	conductor_C OHCond_4_ACSR_I;
	spacing OHSpacing_HORIZONTAL_3P_52;
}

// L_1200155216_LineConfig
object line_configuration {
	name L_1200155216_LineConfig;
	conductor_A OHCond_4_ACSR_I;
	conductor_B OHCond_4_ACSR_I;
	spacing OHSpacing_HORIZONTAL_2P_52;
}

// L_1200155211_LineConfig
object line_configuration {
	name L_1200155211_LineConfig;
	conductor_A OHCond_397_AAC_I;
	conductor_B OHCond_397_AAC_I;
	conductor_C OHCond_397_AAC_I;
	spacing OHSpacing_HORIZONTAL_3P_52;
}

// L_1200100984_LineConfig
object line_configuration {
	name L_1200100984_LineConfig;
	conductor_B OHCond_4_CU_I;
	conductor_C OHCond_4_CU_I;
	spacing OHSpacing_HORIZONTAL_2P_52;
}

// L_1200018122-P-2_LineConfig
object line_configuration {
	name L_1200018122-P-2_LineConfig;
	conductor_A OHCond_1/0_CU_I;
	conductor_B OHCond_1/0_CU_I;
	conductor_C OHCond_1/0_CU_I;
	spacing OHSpacing_HORIZONTAL_3P_52;
}

// L_1200154434_LineConfig
object line_configuration {
	name L_1200154434_LineConfig;
	conductor_A OHCond_6_CU_I;
	conductor_B OHCond_6_CU_I;
	conductor_C OHCond_6_CU_I;
	spacing OHSpacing_HORIZONTAL_3P_52;
}

// L_1200154551_LineConfig
object line_configuration {
	name L_1200154551_LineConfig;
	conductor_A OHCond_2_CU_I;
	conductor_B OHCond_2_CU_I;
	conductor_C OHCond_2_CU_I;
	spacing OHSpacing_HORIZONTAL_3P_52;
}

// L_1200100375_LineConfig
object line_configuration {
	name L_1200100375_LineConfig;
	conductor_A OHCond_4_ACSR_I;
	conductor_B OHCond_4_ACSR_I;
	conductor_C OHCond_4_ACSR_I;
	spacing OHSpacing_HORIZONTAL_3P_52;
}

// L_1200091247_LineConfig
object line_configuration {
	name L_1200091247_LineConfig;
	conductor_A OHCond_6_CU_I;
	conductor_B OHCond_6_CU_I;
	conductor_C OHCond_6_CU_I;
	spacing OHSpacing_HORIZONTAL_3P_52;
}

// L_1200222689_LineConfig
object line_configuration {
	name L_1200222689_LineConfig;
	conductor_A OHCond_1/0_CU_I;
	conductor_B OHCond_1/0_CU_I;
	conductor_C OHCond_1/0_CU_I;
	spacing OHSpacing_HORIZONTAL_3P_52;
}

// L_1200094083_LineConfig
object line_configuration {
	name L_1200094083_LineConfig;
	conductor_A OHCond_6_CU_I;
	conductor_B OHCond_6_CU_I;
	conductor_C OHCond_6_CU_I;
	spacing OHSpacing_HORIZONTAL_3P_52;
}

// L_1200185826_LineConfig
object line_configuration {
	name L_1200185826_LineConfig;
	conductor_A OHCond_2_CU_I;
	conductor_B OHCond_2_CU_I;
	conductor_C OHCond_2_CU_I;
	spacing OHSpacing_HORIZONTAL_3P_52;
}

// L_1200154653_LineConfig
object line_configuration {
	name L_1200154653_LineConfig;
	conductor_A OHCond_6_CU_I;
	conductor_B OHCond_6_CU_I;
	conductor_C OHCond_6_CU_I;
	spacing OHSpacing_HORIZONTAL_3P_52;
}

// L_1200154664_LineConfig
object line_configuration {
	name L_1200154664_LineConfig;
	conductor_A OHCond_6_CU_I;
	conductor_B OHCond_6_CU_I;
	conductor_C OHCond_6_CU_I;
	spacing OHSpacing_HORIZONTAL_3P_52;
}

// L_1200154500_LineConfig
object line_configuration {
	name L_1200154500_LineConfig;
	conductor_A OHCond_6_CU_I;
	conductor_B OHCond_6_CU_I;
	conductor_C OHCond_6_CU_I;
	spacing OHSpacing_HORIZONTAL_3P_52;
}

// L_1200059912_LineConfig
object line_configuration {
	name L_1200059912_LineConfig;
	conductor_A OHCond_4_ACSR_I;
	conductor_B OHCond_4_ACSR_I;
	conductor_C OHCond_4_ACSR_I;
	spacing OHSpacing_HORIZONTAL_3P_52;
}

// L_1200154586_LineConfig
object line_configuration {
	name L_1200154586_LineConfig;
	conductor_A OHCond_6_CU_I;
	conductor_B OHCond_6_CU_I;
	conductor_C OHCond_6_CU_I;
	spacing OHSpacing_HORIZONTAL_3P_52;
}

// L_1200018525_LineConfig
object line_configuration {
	name L_1200018525_LineConfig;
	conductor_A OHCond_6_CU_I;
	conductor_B OHCond_6_CU_I;
	conductor_C OHCond_6_CU_I;
	spacing OHSpacing_HORIZONTAL_3P_52;
}

// L_1200037614_LineConfig
object line_configuration {
	name L_1200037614_LineConfig;
	conductor_A OHCond_6_CU_I;
	conductor_B OHCond_6_CU_I;
	conductor_C OHCond_6_CU_I;
	spacing OHSpacing_HORIZONTAL_3P_52;
}

// L_1200186289_LineConfig
object line_configuration {
	name L_1200186289_LineConfig;
	conductor_A OHCond_2_CU_I;
	conductor_B OHCond_2_CU_I;
	conductor_C OHCond_2_CU_I;
	spacing OHSpacing_HORIZONTAL_3P_52;
}

// L_1200155232_LineConfig
object line_configuration {
	name L_1200155232_LineConfig;
	conductor_A OHCond_4_ACSR_I;
	conductor_B OHCond_4_ACSR_I;
	conductor_C OHCond_4_ACSR_I;
	spacing OHSpacing_HORIZONTAL_3P_52;
}

// L_1200061363_LineConfig
object line_configuration {
	name L_1200061363_LineConfig;
	conductor_A OHCond_6_CU_I;
	conductor_B OHCond_6_CU_I;
	spacing OHSpacing_HORIZONTAL_2P_88;
}

// L_1200155034-P_LineConfig
object line_configuration {
	name L_1200155034-P_LineConfig;
	conductor_A OHCond_1/0_CU_I;
	conductor_B OHCond_1/0_CU_I;
	conductor_C OHCond_1/0_CU_I;
	spacing OHSpacing_HORIZONTAL_3P_52;
}

// L_1200155233_LineConfig
object line_configuration {
	name L_1200155233_LineConfig;
	conductor_A OHCond_6_CU_I;
	conductor_B OHCond_6_CU_I;
	conductor_C OHCond_6_CU_I;
	spacing OHSpacing_HORIZONTAL_3P_52;
}

// L_1200154451_LineConfig
object line_configuration {
	name L_1200154451_LineConfig;
	conductor_A OHCond_3/0_CU_I;
	conductor_B OHCond_3/0_CU_I;
	conductor_C OHCond_3/0_CU_I;
	spacing OHSpacing_HORIZONTAL_3P_52;
}

// L_1200004322_LineConfig
object line_configuration {
	name L_1200004322_LineConfig;
	conductor_A OHCond_6_CU_I;
	conductor_B OHCond_6_CU_I;
	conductor_C OHCond_6_CU_I;
	spacing OHSpacing_HORIZONTAL_3P_52;
}

// L_1200091248_LineConfig
object line_configuration {
	name L_1200091248_LineConfig;
	conductor_A OHCond_6_CU_I;
	conductor_B OHCond_6_CU_I;
	conductor_C OHCond_6_CU_I;
	spacing OHSpacing_HORIZONTAL_3P_52;
}

// L_1200100986_LineConfig
object line_configuration {
	name L_1200100986_LineConfig;
	conductor_B OHCond_4_ACSR_I;
	conductor_C OHCond_4_ACSR_I;
	spacing OHSpacing_HORIZONTAL_2P_88;
}

// L_1200060104_LineConfig
object line_configuration {
	name L_1200060104_LineConfig;
	conductor_A OHCond_2_CU_I;
	conductor_B OHCond_2_CU_I;
	conductor_C OHCond_2_CU_I;
	spacing OHSpacing_HORIZONTAL_3P_52;
}

// L_1200154639_LineConfig
object line_configuration {
	name L_1200154639_LineConfig;
	conductor_A OHCond_2_CU_I;
	conductor_B OHCond_2_CU_I;
	conductor_C OHCond_2_CU_I;
	spacing OHSpacing_HORIZONTAL_3P_52;
}

// L_1200092391-P_LineConfig
object line_configuration {
	name L_1200092391-P_LineConfig;
	conductor_A OHCond_1/0_CU_I;
	conductor_B OHCond_1/0_CU_I;
	conductor_C OHCond_1/0_CU_I;
	spacing OHSpacing_HORIZONTAL_3P_52;
}

// L_1200092399_LineConfig
object line_configuration {
	name L_1200092399_LineConfig;
	conductor_A OHCond_1/0_CU_I;
	conductor_B OHCond_1/0_CU_I;
	conductor_C OHCond_1/0_CU_I;
	spacing OHSpacing_HORIZONTAL_3P_52;
}

// L_1200099735_LineConfig
object line_configuration {
	name L_1200099735_LineConfig;
	conductor_A OHCond_4_ACSR_I;
	conductor_B OHCond_4_ACSR_I;
	conductor_C OHCond_4_ACSR_I;
	spacing OHSpacing_HORIZONTAL_3P_52;
}

// L_1200016886_LineConfig
object line_configuration {
	name L_1200016886_LineConfig;
	conductor_A OHCond_4/0_AAC_I;
	conductor_B OHCond_4/0_AAC_I;
	conductor_C OHCond_4/0_AAC_I;
	spacing OHSpacing_HORIZONTAL_3P_52;
}

// L_1200154617_LineConfig
object line_configuration {
	name L_1200154617_LineConfig;
	conductor_A OHCond_3/0_AAC_I;
	conductor_B OHCond_3/0_AAC_I;
	conductor_C OHCond_3/0_AAC_I;
	spacing OHSpacing_HORIZONTAL_3P_52;
}

// L_1200031106_LineConfig
object line_configuration {
	name L_1200031106_LineConfig;
	conductor_A OHCond_6_CU_I;
	conductor_B OHCond_6_CU_I;
	conductor_C OHCond_6_CU_I;
	spacing OHSpacing_HORIZONTAL_3P_52;
}

// L_1200154754_LineConfig
object line_configuration {
	name L_1200154754_LineConfig;
	conductor_A OHCond_4_ACSR_I;
	conductor_B OHCond_4_ACSR_I;
	conductor_C OHCond_4_ACSR_I;
	spacing OHSpacing_HORIZONTAL_3P_52;
}

// L_1200091241_LineConfig
object line_configuration {
	name L_1200091241_LineConfig;
	conductor_A OHCond_6_CU_I;
	conductor_B OHCond_6_CU_I;
	conductor_C OHCond_6_CU_I;
	spacing OHSpacing_HORIZONTAL_3P_52;
}

// L_1200031353_LineConfig
object line_configuration {
	name L_1200031353_LineConfig;
	conductor_A OHCond_4_CU_I;
	conductor_B OHCond_4_CU_I;
	conductor_C OHCond_4_CU_I;
	spacing OHSpacing_HORIZONTAL_3P_52;
}

// L_1200111260_LineConfig
object line_configuration {
	name L_1200111260_LineConfig;
	conductor_A OHCond_4_ACSR_I;
	conductor_B OHCond_4_ACSR_I;
	conductor_C OHCond_4_ACSR_I;
	spacing OHSpacing_HORIZONTAL_3P_52;
}

// L_1200155165_LineConfig
object line_configuration {
	name L_1200155165_LineConfig;
	conductor_A OHCond_4_ACSR_I;
	conductor_B OHCond_4_ACSR_I;
	conductor_C OHCond_4_ACSR_I;
	spacing OHSpacing_HORIZONTAL_3P_52;
}

// L_1200097595_LineConfig
object line_configuration {
	name L_1200097595_LineConfig;
	conductor_A OHCond_4_ACSR_I;
	conductor_B OHCond_4_ACSR_I;
	conductor_C OHCond_4_ACSR_I;
	spacing OHSpacing_HORIZONTAL_3P_52;
}

// L_1200068278_LineConfig
object line_configuration {
	name L_1200068278_LineConfig;
	conductor_A OHCond_4_ACSR_I;
	conductor_B OHCond_4_ACSR_I;
	conductor_C OHCond_4_ACSR_I;
	spacing OHSpacing_TRIANGULAR_3P_35;
}

// L_1200099293_LineConfig
object line_configuration {
	name L_1200099293_LineConfig;
	conductor_A OHCond_6_CU_I;
	conductor_B OHCond_6_CU_I;
	conductor_C OHCond_6_CU_I;
	spacing OHSpacing_HORIZONTAL_3P_52;
}

// L_1200155082-P_LineConfig
object line_configuration {
	name L_1200155082-P_LineConfig;
	conductor_A OHCond_1/0_CU_I;
	conductor_B OHCond_1/0_CU_I;
	conductor_C OHCond_1/0_CU_I;
	spacing OHSpacing_HORIZONTAL_3P_52;
}

// L_1200155039_LineConfig
object line_configuration {
	name L_1200155039_LineConfig;
	conductor_A OHCond_2_CU_I;
	conductor_B OHCond_2_CU_I;
	conductor_C OHCond_2_CU_I;
	spacing OHSpacing_HORIZONTAL_3P_52;
}

// L_1200154454_LineConfig
object line_configuration {
	name L_1200154454_LineConfig;
	conductor_A OHCond_3/0_CU_I;
	conductor_B OHCond_3/0_CU_I;
	conductor_C OHCond_3/0_CU_I;
	spacing OHSpacing_HORIZONTAL_3P_52;
}

// L_1200037615_LineConfig
object line_configuration {
	name L_1200037615_LineConfig;
	conductor_A OHCond_6_CU_I;
	conductor_B OHCond_6_CU_I;
	conductor_C OHCond_6_CU_I;
	spacing OHSpacing_HORIZONTAL_3P_52;
}

// L_1200108315_LineConfig
object line_configuration {
	name L_1200108315_LineConfig;
	conductor_A OHCond_3/0_AAC_I;
	conductor_B OHCond_3/0_AAC_I;
	conductor_C OHCond_3/0_AAC_I;
	spacing OHSpacing_HORIZONTAL_3P_52;
}

// L_1200091803_LineConfig
object line_configuration {
	name L_1200091803_LineConfig;
	conductor_A OHCond_1_CU_I;
	conductor_B OHCond_1_CU_I;
	conductor_C OHCond_1_CU_I;
	spacing OHSpacing_HORIZONTAL_3P_52;
}

// L_1200155160_LineConfig
object line_configuration {
	name L_1200155160_LineConfig;
	conductor_A OHCond_6_CU_I;
	conductor_B OHCond_6_CU_I;
	conductor_C OHCond_6_CU_I;
	spacing OHSpacing_HORIZONTAL_3P_52;
}

// L_1200074972_LineConfig
object line_configuration {
	name L_1200074972_LineConfig;
	conductor_A OHCond_4_CU_I;
	conductor_B OHCond_4_CU_I;
	conductor_C OHCond_4_CU_I;
	spacing OHSpacing_HORIZONTAL_3P_52;
}

// L_1200154518_LineConfig
object line_configuration {
	name L_1200154518_LineConfig;
	conductor_A OHCond_2_CU_I;
	conductor_B OHCond_2_CU_I;
	conductor_C OHCond_2_CU_I;
	spacing OHSpacing_HORIZONTAL_3P_52;
}

// L_1200017032_LineConfig
object line_configuration {
	name L_1200017032_LineConfig;
	conductor_A OHCond_2_CU_I;
	conductor_B OHCond_2_CU_I;
	conductor_C OHCond_2_CU_I;
	spacing OHSpacing_HORIZONTAL_3P_52;
}

// L_1200017020_LineConfig
object line_configuration {
	name L_1200017020_LineConfig;
	conductor_A OHCond_6_CU_I;
	conductor_B OHCond_6_CU_I;
	conductor_C OHCond_6_CU_I;
	spacing OHSpacing_HORIZONTAL_3P_52;
}

// L_1200154463_LineConfig
object line_configuration {
	name L_1200154463_LineConfig;
	conductor_A OHCond_2_CU_I;
	conductor_B OHCond_2_CU_I;
	conductor_C OHCond_2_CU_I;
	spacing OHSpacing_HORIZONTAL_3P_52;
}

// L_1200154578_LineConfig
object line_configuration {
	name L_1200154578_LineConfig;
	conductor_A OHCond_6_CU_I;
	conductor_B OHCond_6_CU_I;
	conductor_C OHCond_6_CU_I;
	spacing OHSpacing_HORIZONTAL_3P_52;
}

// L_1200056864_LineConfig
object line_configuration {
	name L_1200056864_LineConfig;
	conductor_A OHCond_4_CU_I;
	conductor_B OHCond_4_CU_I;
	conductor_C OHCond_4_CU_I;
	spacing OHSpacing_HORIZONTAL_3P_52;
}

// L_1200154316_LineConfig
object line_configuration {
	name L_1200154316_LineConfig;
	conductor_A OHCond_6_CU_I;
	conductor_B OHCond_6_CU_I;
	conductor_C OHCond_6_CU_I;
	spacing OHSpacing_HORIZONTAL_3P_52;
}

// L_1200004319_LineConfig
object line_configuration {
	name L_1200004319_LineConfig;
	conductor_A OHCond_4/0_AAC_I;
	conductor_B OHCond_4/0_AAC_I;
	conductor_C OHCond_4/0_AAC_I;
	spacing OHSpacing_HORIZONTAL_3P_52;
}

// L_1200018939_LineConfig
object line_configuration {
	name L_1200018939_LineConfig;
	conductor_A OHCond_2_CU_I;
	conductor_B OHCond_2_CU_I;
	conductor_C OHCond_2_CU_I;
	spacing OHSpacing_HORIZONTAL_3P_52;
}

// L_1200018464_LineConfig
object line_configuration {
	name L_1200018464_LineConfig;
	conductor_A OHCond_397_AAC_I;
	conductor_B OHCond_397_AAC_I;
	conductor_C OHCond_397_AAC_I;
	spacing OHSpacing_HORIZONTAL_3P_52;
}

// L_1200154321_LineConfig
object line_configuration {
	name L_1200154321_LineConfig;
	conductor_A OHCond_6_CU_I;
	conductor_B OHCond_6_CU_I;
	conductor_C OHCond_6_CU_I;
	spacing OHSpacing_HORIZONTAL_3P_52;
}

// L_1200092397-P_LineConfig
object line_configuration {
	name L_1200092397-P_LineConfig;
	conductor_A OHCond_1/0_CU_I;
	conductor_B OHCond_1/0_CU_I;
	conductor_C OHCond_1/0_CU_I;
	spacing OHSpacing_HORIZONTAL_3P_52;
}

// L_1200089096_LineConfig
object line_configuration {
	name L_1200089096_LineConfig;
	conductor_A OHCond_4_ACSR_I;
	conductor_B OHCond_4_ACSR_I;
	spacing OHSpacing_HORIZONTAL_2P_88;
}

// L_1200155122_LineConfig
object line_configuration {
	name L_1200155122_LineConfig;
	conductor_A OHCond_715_AAC_I;
	conductor_B OHCond_715_AAC_I;
	conductor_C OHCond_715_AAC_I;
	spacing OHSpacing_HORIZONTAL_3P_52;
}

// L_1200020196_LineConfig
object line_configuration {
	name L_1200020196_LineConfig;
	conductor_A OHCond_2_CU_I;
	conductor_B OHCond_2_CU_I;
	conductor_C OHCond_2_CU_I;
	spacing OHSpacing_HORIZONTAL_3P_52;
}

// L_1200155144_LineConfig
object line_configuration {
	name L_1200155144_LineConfig;
	conductor_A OHCond_4/0_AAC_I;
	conductor_B OHCond_4/0_AAC_I;
	conductor_C OHCond_4/0_AAC_I;
	spacing OHSpacing_HORIZONTAL_3P_52;
}

// L_1200186436_LineConfig
object line_configuration {
	name L_1200186436_LineConfig;
	conductor_A OHCond_4_ACSR_I;
	conductor_B OHCond_4_ACSR_I;
	conductor_C OHCond_4_ACSR_I;
	spacing OHSpacing_HORIZONTAL_3P_52;
}

// L_1200108582_LineConfig
object line_configuration {
	name L_1200108582_LineConfig;
	conductor_A OHCond_4_ACSR_I;
	conductor_B OHCond_4_ACSR_I;
	conductor_C OHCond_4_ACSR_I;
	spacing OHSpacing_HORIZONTAL_3P_52;
}

// L_1200155087-P_LineConfig
object line_configuration {
	name L_1200155087-P_LineConfig;
	conductor_A OHCond_1/0_CU_I;
	conductor_B OHCond_1/0_CU_I;
	conductor_C OHCond_1/0_CU_I;
	spacing OHSpacing_HORIZONTAL_3P_52;
}

// L_1200016939_LineConfig
object line_configuration {
	name L_1200016939_LineConfig;
	conductor_A OHCond_4_CU_I;
	conductor_B OHCond_4_CU_I;
	conductor_C OHCond_4_CU_I;
	spacing OHSpacing_HORIZONTAL_3P_52;
}

// L_1200059966_LineConfig
object line_configuration {
	name L_1200059966_LineConfig;
	conductor_A OHCond_4_CU_I;
	conductor_B OHCond_4_CU_I;
	conductor_C OHCond_4_CU_I;
	spacing OHSpacing_HORIZONTAL_3P_52;
}

// L_1200155231_LineConfig
object line_configuration {
	name L_1200155231_LineConfig;
	conductor_A OHCond_4_ACSR_I;
	conductor_B OHCond_4_ACSR_I;
	conductor_C OHCond_4_ACSR_I;
	spacing OHSpacing_HORIZONTAL_3P_52;
}

// L_1200154750_LineConfig
object line_configuration {
	name L_1200154750_LineConfig;
	conductor_A OHCond_6_CU_I;
	conductor_B OHCond_6_CU_I;
	conductor_C OHCond_6_CU_I;
	spacing OHSpacing_HORIZONTAL_3P_52;
}

// L_1200016936_LineConfig
object line_configuration {
	name L_1200016936_LineConfig;
	conductor_A OHCond_4/0_AAC_I;
	conductor_B OHCond_4/0_AAC_I;
	conductor_C OHCond_4/0_AAC_I;
	spacing OHSpacing_HORIZONTAL_3P_52;
}

// L_1200155207_LineConfig
object line_configuration {
	name L_1200155207_LineConfig;
	conductor_A OHCond_4_ACSR_I;
	conductor_B OHCond_4_ACSR_I;
	conductor_C OHCond_4_ACSR_I;
	spacing OHSpacing_HORIZONTAL_3P_52;
}

// L_1200155022_LineConfig
object line_configuration {
	name L_1200155022_LineConfig;
	conductor_A OHCond_4_ACSR_I;
	conductor_B OHCond_4_ACSR_I;
	spacing OHSpacing_HORIZONTAL_2P_52;
}

// L_1200154668_LineConfig
object line_configuration {
	name L_1200154668_LineConfig;
	conductor_A OHCond_6_CU_I;
	conductor_B OHCond_6_CU_I;
	conductor_C OHCond_6_CU_I;
	spacing OHSpacing_HORIZONTAL_3P_52;
}

// L_1200090905_LineConfig
object line_configuration {
	name L_1200090905_LineConfig;
	conductor_A OHCond_6_CU_I;
	conductor_B OHCond_6_CU_I;
	conductor_C OHCond_6_CU_I;
	spacing OHSpacing_HORIZONTAL_3P_52;
}

// L_1200154502_LineConfig
object line_configuration {
	name L_1200154502_LineConfig;
	conductor_A OHCond_4_ACSR_I;
	conductor_B OHCond_4_ACSR_I;
	conductor_C OHCond_4_ACSR_I;
	spacing OHSpacing_HORIZONTAL_3P_52;
}

// L_1200059965_LineConfig
object line_configuration {
	name L_1200059965_LineConfig;
	conductor_A OHCond_6_CU_I;
	conductor_B OHCond_6_CU_I;
	conductor_C OHCond_6_CU_I;
	spacing OHSpacing_HORIZONTAL_3P_52;
}

// L_1200154520_LineConfig
object line_configuration {
	name L_1200154520_LineConfig;
	conductor_A OHCond_2_CU_I;
	conductor_B OHCond_2_CU_I;
	conductor_C OHCond_2_CU_I;
	spacing OHSpacing_HORIZONTAL_3P_52;
}

// L_1200148007_LineConfig
object line_configuration {
	name L_1200148007_LineConfig;
	conductor_A OHCond_4_CU_I;
	conductor_B OHCond_4_CU_I;
	conductor_C OHCond_4_CU_I;
	spacing OHSpacing_HORIZONTAL_3P_52;
}

// L_1200088168_LineConfig
object line_configuration {
	name L_1200088168_LineConfig;
	conductor_A OHCond_6_CU_I;
	conductor_B OHCond_6_CU_I;
	conductor_C OHCond_6_CU_I;
	spacing OHSpacing_HORIZONTAL_3P_52;
}

// L_1200154265_LineConfig
object line_configuration {
	name L_1200154265_LineConfig;
	conductor_A OHCond_4_ACSR_I;
	conductor_B OHCond_4_ACSR_I;
	conductor_C OHCond_4_ACSR_I;
	spacing OHSpacing_HORIZONTAL_3P_52;
}

// L_1200154303_LineConfig
object line_configuration {
	name L_1200154303_LineConfig;
	conductor_A OHCond_6_CU_I;
	conductor_B OHCond_6_CU_I;
	conductor_C OHCond_6_CU_I;
	spacing OHSpacing_HORIZONTAL_3P_52;
}

// L_1200154984_LineConfig
object line_configuration {
	name L_1200154984_LineConfig;
	conductor_A OHCond_3/0_AAC_I;
	conductor_B OHCond_3/0_AAC_I;
	conductor_C OHCond_3/0_AAC_I;
	spacing OHSpacing_HORIZONTAL_3P_52;
}

// L_1200154525_LineConfig
object line_configuration {
	name L_1200154525_LineConfig;
	conductor_A OHCond_2_CU_I;
	conductor_B OHCond_2_CU_I;
	conductor_C OHCond_2_CU_I;
	spacing OHSpacing_HORIZONTAL_3P_52;
}

// L_1200216034_LineConfig
object line_configuration {
	name L_1200216034_LineConfig;
	conductor_A OHCond_4_ACSR_I;
	conductor_B OHCond_4_ACSR_I;
	spacing OHSpacing_HORIZONTAL_2P_88;
}

// L_1200155143_LineConfig
object line_configuration {
	name L_1200155143_LineConfig;
	conductor_A OHCond_4/0_AAC_I;
	conductor_B OHCond_4/0_AAC_I;
	conductor_C OHCond_4/0_AAC_I;
	spacing OHSpacing_HORIZONTAL_3P_52;
}

// L_1200154269_LineConfig
object line_configuration {
	name L_1200154269_LineConfig;
	conductor_A OHCond_6_CU_I;
	conductor_B OHCond_6_CU_I;
	conductor_C OHCond_6_CU_I;
	spacing OHSpacing_HORIZONTAL_3P_52;
}

// L_1200155021_LineConfig
object line_configuration {
	name L_1200155021_LineConfig;
	conductor_A OHCond_4/0_ACSR_I;
	conductor_B OHCond_4/0_ACSR_I;
	conductor_C OHCond_4/0_ACSR_I;
	spacing OHSpacing_HORIZONTAL_3P_52;
}

// L_1200155027_LineConfig
object line_configuration {
	name L_1200155027_LineConfig;
	conductor_A OHCond_2_CU_I;
	conductor_B OHCond_2_CU_I;
	conductor_C OHCond_2_CU_I;
	spacing OHSpacing_HORIZONTAL_3P_52;
}

// L_1200089094_LineConfig
object line_configuration {
	name L_1200089094_LineConfig;
	conductor_A OHCond_4_ACSR_I;
	conductor_B OHCond_4_ACSR_I;
	spacing OHSpacing_HORIZONTAL_2P_88;
}

// L_1200092404_LineConfig
object line_configuration {
	name L_1200092404_LineConfig;
	conductor_A OHCond_6_CU_I;
	conductor_B OHCond_6_CU_I;
	conductor_C OHCond_6_CU_I;
	spacing OHSpacing_HORIZONTAL_3P_52;
}

// L_1200184302_LineConfig
object line_configuration {
	name L_1200184302_LineConfig;
	conductor_A OHCond_4_ACSR_I;
	conductor_B OHCond_4_ACSR_I;
	conductor_C OHCond_4_ACSR_I;
	spacing OHSpacing_HORIZONTAL_3P_52;
}

// L_1200154571_LineConfig
object line_configuration {
	name L_1200154571_LineConfig;
	conductor_A OHCond_4_ACSR_I;
	conductor_B OHCond_4_ACSR_I;
	conductor_C OHCond_4_ACSR_I;
	spacing OHSpacing_HORIZONTAL_3P_52;
}

// L_1200061364_LineConfig
object line_configuration {
	name L_1200061364_LineConfig;
	conductor_A OHCond_397_AAC_I;
	conductor_B OHCond_397_AAC_I;
	conductor_C OHCond_397_AAC_I;
	spacing OHSpacing_HORIZONTAL_3P_52;
}

// L_1200031360_LineConfig
object line_configuration {
	name L_1200031360_LineConfig;
	conductor_A OHCond_4_CU_I;
	conductor_B OHCond_4_CU_I;
	conductor_C OHCond_4_CU_I;
	spacing OHSpacing_HORIZONTAL_3P_52;
}

// L_1200155087_LineConfig
object line_configuration {
	name L_1200155087_LineConfig;
	conductor_A OHCond_1/0_CU_I;
	conductor_B OHCond_1/0_CU_I;
	conductor_C OHCond_1/0_CU_I;
	spacing OHSpacing_HORIZONTAL_3P_52;
}

// L_1200154509_LineConfig
object line_configuration {
	name L_1200154509_LineConfig;
	conductor_A OHCond_6_CU_I;
	conductor_B OHCond_6_CU_I;
	conductor_C OHCond_6_CU_I;
	spacing OHSpacing_HORIZONTAL_3P_52;
}

// L_1200154891_LineConfig
object line_configuration {
	name L_1200154891_LineConfig;
	conductor_A OHCond_1_CU_I;
	conductor_B OHCond_1_CU_I;
	conductor_C OHCond_1_CU_I;
	spacing OHSpacing_HORIZONTAL_3P_52;
}

// L_1200001704_LineConfig
object line_configuration {
	name L_1200001704_LineConfig;
...